
Note: Compatibility modes selected: hs a

Warning: m=xx on .subckt line will override multiplier m hierarchy!


Circuit: ** sch_path: /fs1/eecg/tcc/lizongh2/sky130_ldo/xschem/ldo_tb.sch

option SCALE: Scale is set to 1e-06 for instance and model parameters
Doing analysis at TEMP = 27.000000 and TNOM = 27.000000

Note: il: dc value used for op instead of transient time=0 value.

No. of Data Rows : 101
Doing analysis at TEMP = 27.000000 and TNOM = 27.000000

Note: il: dc value used for op instead of transient time=0 value.

No. of Data Rows : 101
ERROR: (internal)  This operation is not defined for display type PrinterOnly.
Can't open viewport for graphics.
ERROR: (internal)  This operation is not defined for display type PrinterOnly.
Can't open viewport for graphics.
reset: too many args.
Doing analysis at TEMP = 27.000000 and TNOM = 27.000000

Note: il: dc value used for op instead of transient time=0 value.

No. of Data Rows : 101
Doing analysis at TEMP = 27.000000 and TNOM = 27.000000

Note: il: dc value used for op instead of transient time=0 value.

No. of Data Rows : 101
ERROR: (internal)  This operation is not defined for display type PrinterOnly.
Can't open viewport for graphics.
ERROR: (internal)  This operation is not defined for display type PrinterOnly.
Can't open viewport for graphics.
Doing analysis at TEMP = 27.000000 and TNOM = 27.000000

Note: il: dc value used for op instead of transient time=0 value.

No. of Data Rows : 201
ERROR: (internal)  This operation is not defined for display type PrinterOnly.
Can't open viewport for graphics.
Doing analysis at TEMP = 27.000000 and TNOM = 27.000000

Note: il: dc value used for op instead of transient time=0 value.

Initial Transient Solution
--------------------------

Node                                   Voltage
----                                   -------
vref                                       1.8
net1                                  0.932224
vreg                                   1.83686
net2                                     1e-05
vdd                                          2
x1.x1.net1                            0.910414
x1.x1.net2                            0.385827
x1.net1                                1.26551
x1.net2                                1.26551
x1.xcfb.a                              1.83686
x1.xcfb.b1                             1.83686
x1.xrfb.ra                             1.26551
xcl.a                                        0
xcl.b1                                       0
vref1                                      1.8
net3                                  0.932224
vreg1                                  1.79314
vdd1                                         2
x2.x1.net1                            0.915841
net4                                   1.79314
x2.x1.net2                            0.367256
x2.net1                               0.862765
x2.net2                               0.862765
x2.xcfb.a                              1.79314
x2.xcfb.b1                             1.79314
x2.xrfb.ra                            0.862765
xcl1.a                                       0
xcl1.b1                                      0
probe                                  1.79314
vprobe1#branch                               0
vprobe2#branch                               0
vdd1#branch                         -0.0101827
vb1#branch                                   0
vref1#branch                                 0
vdd#branch                        -0.000194255
vb#branch                                    0
vref#branch                                  0


No. of Data Rows : 10019
ERROR: (internal)  This operation is not defined for display type PrinterOnly.
Can't open viewport for graphics.
ERROR: (internal)  This operation is not defined for display type PrinterOnly.
Can't open viewport for graphics.
Doing analysis at TEMP = 27.000000 and TNOM = 27.000000

Note: il: dc value used for op instead of transient time=0 value.

No. of Data Rows : 101
ERROR: (internal)  This operation is not defined for display type PrinterOnly.
Can't open viewport for graphics.
Doing analysis at TEMP = 27.000000 and TNOM = 27.000000


No. of Data Rows : 101
ERROR: (internal)  This operation is not defined for display type PrinterOnly.
Can't open viewport for graphics.
Doing analysis at TEMP = 27.000000 and TNOM = 27.000000


No. of Data Rows : 1
ASCII raw file "ldo_tb_op"
Note: No ".plot", ".print", or ".fourier" lines; no simulations run
